PCB_Project
*SPICE Netlist generated by Advanced Sim server on 14-07-2023 16:27:18
.options MixedSimGenerated

.PLOT {V(+24V)} =PLOT(1) =AXIS(1)

*Selected Circuit Analyses:
.TRAN 0.1u 5u 0 0.1u

.END